<?xml version="1.0" encoding="UTF-8"?>

<!-- generated on 2025-01-01 11:07:59.354697 by randomTrips.py v1_21_0+0000-d7b3b481c43
<configuration>
    <net-file value="rjy_network_with_tls.net.xml"/>
    <output-trip-file value="rjy_routes.rou.xml"/>
    <validate value="True"/>
</configuration>
-->

<!-- generated on 2025-01-01 11:07:56 by Eclipse SUMO duarouter Version 1.21.0
<duarouterConfiguration xmlns:xsi="http://www.w3.org/2001/XMLSchema-instance" xsi:noNamespaceSchemaLocation="http://sumo.dlr.de/xsd/duarouterConfiguration.xsd">

    <input>
        <net-file value="rjy_network_with_tls.net.xml"/>
        <route-files value="rjy_routes.rou.xml"/>
    </input>

    <output>
        <output-file value="routes.rou.xml"/>
        <alternatives-output value="NUL"/>
    </output>

    <time>
        <begin value="0"/>
        <end value="3600.0"/>
    </time>

    <report>
        <no-warnings value="true"/>
        <ignore-errors value="true"/>
        <no-step-log value="true"/>
    </report>

</duarouterConfiguration>
-->

<routes xmlns:xsi="http://www.w3.org/2001/XMLSchema-instance" xsi:noNamespaceSchemaLocation="http://sumo.dlr.de/xsd/routes_file.xsd">
    <vehicle id="0" depart="0.00">
        <route edges="279518819#6 279685704 -281119294#14 -281119294#13 -281119294#12 -281119294#11 -281119294#10 -281119294#9 -281119294#8 -281119294#7 -281119294#6 -281119294#5 -281119294#4 -281119294#3 -281119294#2 -281119294#1 -281119294#0 1263703583#2 -281109325#14 -281109325#13 -281109325#12 -281109325#11 -281109325#10 -281109325#9 -281109325#8 -281109325#7 -281109325#6 -281109325#5 -281109325#4 -281109325#3 -281109325#2 -281109325#1 -281109325#0 -419854108#17 -419854108#16 -419854108#15 -419854108#14 -419854108#13 -419854108#12 -419854108#11 -419854108#10 -419854108#9 -419854108#8 -419854108#7 279499130#7 -279499130#7"/>
    </vehicle>
    <vehicle id="1" depart="1.00">
        <route edges="-279967325#0 1266455130#1 1266455130#2 1266440060#2 280348417#0 280348417#1 280348417#2 280348417#3 280348417#4 280348417#5 280348417#6 280348417#7 280348417#8 280348417#9 1263703583#5 1263703583#6 1263703583#0 1263703583#1 281119294#0 281119294#1 281119294#2 281119294#3 281119294#4 281119294#5 281119294#6 281119294#7 281119294#8 281119294#9 281119294#10 281119294#11 281119294#12 281119294#13 281119294#14 281119294#15 281119294#16 281119294#17 281119294#18 281119294#19 281119294#20 281119294#21 281119294#22 281119294#23 -281120012#2 280181976#2 280181976#3 280181976#4 -279689754#1"/>
    </vehicle>
    <vehicle id="2" depart="2.00">
        <route edges="279945569#0 547902013#0 279530383#2 279530383#3 279530383#4 279530383#5 279715103#5 279715103#6 279715103#7 1266440060#0 835132889#0 835132889#1 835132889#2 835132889#3 835132893 835132890 387068945#1 387068945#2 279530382#0 279530382#1"/>
    </vehicle>
    <vehicle id="3" depart="3.00">
        <route edges="281119294#14 -279685704 279518819#7 279504995#1 279504995#2 378623308 232461096#2 232461096#3 -279501573#2 279501530#12 378623684#0 378623684#1 -369456722 -279501567#0"/>
    </vehicle>
    <vehicle id="4" depart="4.00">
        <route edges="-369456734#13 -369456734#12 -369456734#11 -369456734#10 -369456734#9 -369456734#8 -280732507#17 -280732507#16 -280732507#15 -280732507#14 -280732507#13 -280732507#12 -280732507#11 -280732507#10 -280732507#9 -280732507#8 -280732507#7 -279499156#2 -279499156#1"/>
    </vehicle>
    <vehicle id="5" depart="5.00">
        <route edges="-279685702#1 -1048526931 -1285507434#2 -1285507434#1 -1285507434#0 -281119294#16 -281119294#15 -281119294#14 -281119294#13 -279501527#7 -279501527#6 -279501527#5 -279501527#4 -279501527#3 -279501527#2 -279501527#1 -279501527#0 -279715095#5 -279715095#4 -279715095#3 -279715095#2 -279715095#1 -279715095#0 369456734#0 369456734#1 369456734#2 369456734#3 369456734#4 369456734#5 369456734#6 369456734#7 -280732507#17 -281106276#1 279499131"/>
    </vehicle>
    <vehicle id="6" depart="6.00">
        <route edges="-279499145 280189746#2 280189732#1 280189732#2 280189732#3 369456734#2 369456734#3 369456734#4 369456734#5 369456734#6 369456734#7 369456734#8 369456734#9 369456734#10 369456734#11 369456734#12 369456734#13 369456734#14 281109325#4 281109325#5 281109325#6 281109325#7 281109325#8 281109325#9 281109325#10 281109325#11 281109325#12 281109325#13 281109325#14 1263703583#3 1263703583#4 1266440059#0 -279530388#2 -369474905 -279530392#3 -279530392#2 -279530392#1"/>
    </vehicle>
    <vehicle id="7" depart="7.00">
        <route edges="279524838 279499172#4 -279530356 419854108#14 419854108#15 419854108#16 419854108#17 281109325#0 281109325#1 281109325#2 281109325#3 281109325#4 281109325#5 281109325#6 281109325#7 279501530#0 279501530#1 279501530#2 279501530#3 279501530#4 279501530#5 279501530#6 279501530#7 279501530#8 279501530#9"/>
    </vehicle>
    <vehicle id="8" depart="8.00">
        <route edges="-279685709#1 -1285507434#1 -1285507434#0 -281119294#16 -281119294#15 -281119294#14 -281119294#13 -279501527#7 -279501527#6 -279501527#5 -279501527#4 -279501527#3 -279501527#2 -279501527#1 348372031#1 348372031#2 -279501531#3 -279501549 279501601#1"/>
    </vehicle>
    <vehicle id="9" depart="9.00">
        <route edges="280189624#2 280189624#3 280189624#4 -419854108#2 -419854108#1 280345396#0 280345396#1 280345396#2 280345396#3 280345396#4 280345396#5 280345396#6 280345396#7 419233571#0 475416171#13 -280189771#1 -1065052126"/>
    </vehicle>
    <vehicle id="10" depart="10.00">
        <route edges="280181976#0 280181976#1 281120012#2 -279684889#4 279684883#0 279684883#1 279684883#2 279684883#3"/>
    </vehicle>
    <vehicle id="11" depart="11.00">
        <route edges="-280189752#0 -280732507#14 280189757#0 280189757#1 280189757#2 280189757#3 -419854108#14 -419854108#13 -419854108#12 -419854108#11 -419854108#10 -419854108#9 -419854108#8 -419854108#7 279499130#7 279499130#8 279499130#9 279499130#10 279499130#11 279499130#12 279499130#13 279499130#14 279499130#15 -279969747#7 -279969747#6 -279969747#5 -279969747#4 -279969747#3 -279969747#2 -279969747#1 -279969747#0 -279524835#7 -279524835#6 -279524845#0"/>
    </vehicle>
    <vehicle id="12" depart="12.00">
        <route edges="419854108#16 419854108#17 -280189750#1"/>
    </vehicle>
    <vehicle id="13" depart="13.00">
        <route edges="-279501574 279501537#1 -1074690481 -419236412 -279501602#3 -279501602#2 -279501602#1 -279501602#0 475416171#7 475416171#8 475416171#9 475416171#10 475416171#11 475416171#12 -419233571#0 1094495393 279525094#0 279525094#1 279525094#2 279525094#3 279525094#4 279525094#5 279525094#6 279715095#0 279715095#1 279715095#2 279715095#3 -279501584#1"/>
    </vehicle>
    <vehicle id="14" depart="14.00">
        <route edges="280204488#0 280204504#5 -280204512#4 -280204512#3 -280204512#2 -280204512#1 -280204512#0 279501602#0 279501602#1 279501602#2 279501602#3 279501602#4 279501602#5 279501602#6 279501602#7 279501602#8 279501602#9 279501602#10 279501602#11 279501602#12 279501602#13 279501602#14 279501602#15 279501602#16 279501602#17 279504997#0 279504742#0 279504762#0 279504762#1"/>
    </vehicle>
    <vehicle id="15" depart="15.00">
        <route edges="280181976#4 279689754#2 -279688935#2 -279688935#1 -279688935#0 281120012#1 281120012#2 -281119294#23 -281119294#22 -281119294#21 -281119294#20 -281119294#19 -281119294#18 -281119294#17 -281119294#16 -281119294#15 -281119294#14 -281119294#13 -281119294#12 -281119294#11 -281119294#10 -281119294#9 -281119294#8 -281119294#7 -281119294#6 -281119294#5 -281119294#4 -281119294#3 -281119294#2 -281119294#1 -281119294#0 1263703583#2 1263703583#3 387068944#0 387068944#1 387068944#2 387068944#3 387068944#4 387068944#5 1266455129#1 -279715103#7 -279715103#6 -279715103#5 -279530383#5 -279530383#4 -279530383#3 279499176#8 279499176#9 279945589#0"/>
    </vehicle>
    <vehicle id="16" depart="16.00">
        <route edges="279499172#4 -279530356 -419854108#13 -419854108#12 -419854108#11 -419854108#10 -419854108#9 -419854108#8 -419854108#7 -419854108#6 -419854108#5 -419854108#4 -419854108#3 -419854108#2 -419854108#1 280345396#0 280345396#1 280345396#2 280345396#3 280345396#4 280345396#5 -420485899#4 475416171#15 475416171#16"/>
    </vehicle>
    <vehicle id="17" depart="17.00">
        <route edges="-280732507#10 -280732507#9 -280732507#8 -280732507#7 -280732507#6 -280732507#5 -280732507#4 -279499130#2 -279499130#1 -279499130#0 280345396#6 280345396#7 280345396#8 280345396#9 280345396#10 280345396#11 280345396#12 280345396#13 280345396#14 280345396#15 280345396#16 280345396#17 279501602#1 279501602#2 279501602#3 279501602#4 279501602#5 279501602#6 279501602#7 279501602#8 279501602#9 279501602#10 279501602#11 279501602#12 -279504724#2 -279504724#1 279501537#6"/>
    </vehicle>
    <vehicle id="18" depart="18.00">
        <route edges="280189746#0 -279499167#2 -279499167#1 -279499167#0 -369456734#0 279715095#0 279715095#1 279715095#2 279715095#3 279715095#4 279715095#5 -443049021#2 -443049021#1 -443049021#0 279501573#0 279501573#1 279501573#2 232461096#0 232461096#1 232461096#2 279518801#0"/>
    </vehicle>
    <vehicle id="19" depart="19.00">
        <route edges="280345396#11 -279501594#0 475416171#9 475416171#10 475416171#11 475416171#12 -419233571#0 1094495393 279525094#0 279525094#1 279525094#2 279525094#3 279525094#4 279525094#5 279525094#6 369456734#0 369456734#1 369456734#2 369456734#3 369456734#4 279501597#0 279501597#1 279501597#2 -279501582#0 -1065052120 1065052120 279501582#0"/>
    </vehicle>
    <vehicle id="20" depart="20.00">
        <route edges="279533979 -279499166#0 279499130#8 279499130#9 279499130#10 279499130#11 279499130#12 -279499180#4 -279499180#3 279945594#0 279945594#1 279945594#2 -279945570 279530381#0 -279499175#6"/>
    </vehicle>
    <vehicle id="21" depart="21.00">
        <route edges="-279715095#0 369456734#0 369456734#1 369456734#2 369456734#3 369456734#4 369456734#5 369456734#6 369456734#7 369456734#8 369456734#9 369456734#10 369456734#11 369456734#12 369456734#13 369456734#14 -281109325#3 -281109325#2 -281109325#1 -281109325#0 -419854108#17 -419854108#16 -419854108#15 -419854108#14 -419854108#13 -419854108#12 -419854108#11 -419854108#10 -419854108#9 -419854108#8 -419854108#7 279499130#7 279499130#8 279499130#9 279499130#10 279499130#11 279499130#12 279499130#13 279499130#14 279499130#15 -279969747#7 -279969747#6"/>
    </vehicle>
    <vehicle id="22" depart="22.00">
        <route edges="-279501552 -475423860 -279504993#12 279501527#5 279501527#6 279501527#7 -281119294#12 -281119294#11 -281119294#10 -281119294#9 -281119294#8 -281119294#7 -281119294#6 -281119294#5 -281119294#4 -281119294#3 -281119294#2 -281119294#1 -281119294#0 1263703583#2 1263703583#3 1263703583#4 1266440059#0 1266440059#1 1266440059#2 1266450455#1 1266450455#2 1266450455#3 419635881#5 419635881#0 419635881#1 419635881#2 443049011#0 443049011#1 443049011#2 443049011#3 443049011#4 -369474920 -279940108#2"/>
    </vehicle>
    <vehicle id="23" depart="23.00">
        <route edges="-279501590#1 -279501597#1 -279501597#0 369456734#5 369456734#6 369456734#7 369456734#8 369456734#9 369456734#10 369456734#11 369456734#12 369456734#13 369456734#14 281109325#4 281109325#5 281109325#6 281109325#7 279501558#0 279501558#1 279501558#2 279501558#3 279501558#4 -369486378 -279967338"/>
    </vehicle>
    <vehicle id="24" depart="24.00">
        <route edges="279518816#2 279504996#3 279504996#4 475418308#6 475418308#7 -279501602#17 -279501602#16 -279501602#15 -279501602#14 -279501602#13 -279501602#12 -279501602#11 -279501602#10 -279501602#9 -279501602#8 -279501602#7 -279501602#6 -279501602#5 -279501602#4 -279501602#3 -279501602#2 -279501602#1 -279501602#0 475416171#7 475416171#8 475416171#9 475416171#10 475416171#11 475416171#12 -419233571#0 1094495393 279525094#0 279525094#1 475423595#0 475423595#1 475423595#2 475423595#3 -280722312#1"/>
    </vehicle>
    <vehicle id="25" depart="25.00">
        <route edges="-280348421#1 -280348421#0 279530333#4 279530333#5 443053322#2 443053322#3 443053322#4 1263703583#6 1263703583#0 1263703583#1 1263703583#2 1263703583#3 1263703583#4 1266440059#0 1266440059#1 1266440059#2 1266450455#1 1266450455#2 1266450455#3 419635881#5 419635881#0 419635881#1 419635881#2 443049011#0 280328478#0 280328478#1 280328478#2 -279533990"/>
    </vehicle>
    <vehicle id="26" depart="26.00">
        <route edges="-279961598#2 -279530378#1 -279530378#0 -387068945#3 -387068945#2 -387068945#1 -387068945#0 835132891 325026086 835132892 1266455130#0 1266455130#1 1266455130#2 1266440060#2 1266440060#3 1266455129#0 1266455129#1 -279715103#7 -279715103#6 -279715103#5 -279715103#4 -279715103#3 -279715103#2 -279715103#1 -279715103#0 -369456734#14 -369456734#13 -369456734#12 -369456734#11 -369456734#10 -369456734#9 -369456734#8 -369456734#7 -369456734#6 -369456734#5 -369456734#4 -369456734#3 -369456734#2 -369456734#1 -369456734#0 279715095#0 279715095#1 279715095#2 279715095#3 279715095#4 279715095#5 -443049021#2 -443049021#1 -443049021#0 -369457526#2 -475423862#0 369456726 -279501567#1 369456722 378623684#2"/>
    </vehicle>
    <vehicle id="27" depart="27.00">
        <route edges="279524836#6 279524836#7 279524836#8 279524836#9 279524836#10 279524836#11 279524836#12 279524836#13 -387068945#11 -387068945#10 -387068945#9 -387068945#8 -387068945#7 -387068945#6 -387068945#5 -387068945#4 -387068945#3 -387068945#2 -387068945#1 -387068945#0 835132891 325026086 835132892 1266455130#0 1266455130#1 1266455130#2 1266440060#2 280348417#0 280348417#1 280348417#2 280348417#3 280348417#4 280348417#5 280348417#6 280348417#7 280348417#8 280348417#9 1263703583#5 1263703583#6 1263703583#0 1263703583#1 281119294#0 281119294#1 281119294#2 281119294#3 281119294#4 281119294#5 281119294#6 281119294#7 281119294#8 281119294#9 281119294#10 281119294#11 281119294#12 -279501527#7 -279501527#6 -279501527#5 279504993#12"/>
    </vehicle>
    <vehicle id="28" depart="28.00">
        <route edges="-279530334#1 -369464772#1 369464770 279530333#2 -280348420#1 -280348420#0 443053322#4 1263703583#6 1263703583#0 1263703583#1 1263703583#2 1263703583#3 387068944#0 387068944#1 387068944#2 387068944#3 387068944#4 387068944#5 1266455129#1 -279715103#7 -279715103#6 -279715103#5 -279530383#5 -279530383#4 1046397156 279945589#1 279945589#2 -279945580 279945580"/>
    </vehicle>
    <vehicle id="29" depart="29.00">
        <route edges="-279524858#7 -279524858#6 -279524858#5 -279524858#4 -279524858#3 -279524858#2 -279524858#1 -279524858#0 279524836#7 279524836#8 279524836#9 279524836#10 279524836#11 279524836#12 279524836#13 -387068945#11 -387068945#10 -387068945#9 -387068945#8 -387068945#7 -387068945#6 -387068945#5 -387068945#4 -387068945#3 -387068945#2 -387068945#1 -387068945#0 835132891 325026086 835132892 1266455130#0 1266455130#1 1266455130#2 1266440060#2 280348417#0 280348417#1 280348417#2 280348417#3 280348417#4 280348417#5 280348417#6 280348417#7 280348417#8 280348417#9 1263703583#5 1263703583#6 1263703583#0 1263703583#1 1263703583#2 -281109325#14"/>
    </vehicle>
    <vehicle id="30" depart="30.00">
        <route edges="475424346#0 -279499166#4 -279499166#3 -279499166#2 -279499166#1 -279499166#0 279499130#8 279499130#9 279499130#10 279499130#11 279499130#12 279499130#13 279499130#14 279499130#15 279524836#0 279524850#0"/>
    </vehicle>
    <vehicle id="31" depart="31.00">
        <route edges="279501530#6 -279501530#6 -279501530#5 -279501530#4 -279501530#3 -279501530#2 -279501530#1 -279501530#0 279501558#0 279501558#1 279501558#2 279501558#3 280348417#5 280348417#6 279530392#0 279530392#1"/>
    </vehicle>
    <vehicle id="32" depart="32.00">
        <route edges="280189773#2 475423595#1 475423595#2 475423595#3 -280722312#1 -280722312#0 -420485899#4 475416171#15 475416171#16 475416171#17 475416171#18 475416171#19 475416171#20 419854108#0 419854108#1 419854108#2 419854108#3 419854108#4 419854108#5 419854108#6 279499130#7 279499130#8 279499130#9 279499130#10 279499130#11 279499130#12 279499130#13 279499130#14 279499130#15 -279969747#7 -279969747#6 -279969747#5 -279969747#4 -279969747#3 -279969747#2 -279969747#1 279969747#1"/>
    </vehicle>
    <vehicle id="33" depart="33.00">
        <route edges="-279715095#4 -279715095#3 -279715095#2 -279715095#1 -279715095#0 369456734#0 369456734#1 369456734#2 369456734#3 369456734#4 369456734#5 369456734#6 369456734#7 369456734#8 369456734#9 369456734#10 369456734#11 369456734#12 369456734#13 369456734#14 279715103#0 279499151#0 279499151#1 279499151#2 -279499157#0"/>
    </vehicle>
    <vehicle id="34" depart="34.00">
        <route edges="-280189645 279499127#4 279499127#5 279499127#6 279499127#7 279499127#8 -280732507#12 280189754#0 280189754#1 280189754#2 280189754#3 280189754#4 280189754#5 -419854108#12 -419854108#11 -419854108#10 -419854108#9 -419854108#8 -419854108#7 279499130#7 279499130#8 279499130#9 279499130#10 279499130#11 279499130#12 279499130#13 279499130#14 279499130#15 279524836#0 279524836#1 279524836#2 279524836#3 279524836#4 279524836#5 279524836#6 279524836#7 279524836#8 279524836#9 279524836#10 279524836#11 -317362405#1 -279961613"/>
    </vehicle>
    <vehicle id="35" depart="35.00">
        <route edges="-279533990 279533990 -280328478#2 -280328478#1 -280328478#0 -443049011#0 419635881#3 419635881#4 419635881#5 419635881#0 -279967368 443049022#0 443049022#1 443049022#2 443049022#3 443049022#4 1266440060#3 1266455129#0 1266455129#1 1266440060#0 835132889#0 835132889#1 835132889#2 835132889#3 835132893 835132890 387068945#1 387068945#2 387068945#3 387068945#4 387068945#5 387068945#6 387068945#7 387068945#8 387068945#9 387068945#10 387068945#11 387068945#12 387068945#13 387068945#14 387068945#15 387068945#16 387068945#17 387068945#18"/>
    </vehicle>
    <vehicle id="36" depart="36.00">
        <route edges="280729010#3 279501599#0 279501599#1 475418261#4 475418261#5 279525094#0 279525094#1 279525094#2 279525094#3 279525094#4 279525094#5 280189746#0 280189746#1 280189746#2 280189746#3 280189746#4 280189746#5 280189746#6 280189746#7 280189746#8 -280189670"/>
    </vehicle>
    <vehicle id="37" depart="37.00">
        <route edges="279524857#1 -279961603#1 279533970#0 279533970#1 279533970#2 279533970#3 279524860#1 279524860#2 279524860#3 279524860#4 279524860#5 279524860#6 279524860#7 279524860#8 279524860#9 279524860#10 279524833#0 279524833#1 -316690054#2"/>
    </vehicle>
    <vehicle id="38" depart="38.00">
        <route edges="350618188#0 -279501527#1 -279501527#0 -279715095#5 -279715095#4 -279715095#3 -279715095#2 -279715095#1 -279715095#0 369456734#0 369456734#1 369456734#2 369456734#3 369456734#4 369456734#5 369456734#6 369456734#7 369456734#8 369456734#9 369456734#10 369456734#11 369456734#12 369456734#13 369456734#14 279715103#0 279715103#1 279715103#2 279715103#3 279715103#4 279715103#5 279715103#6 279715103#7 1266440060#0 1266440060#1 1266440060#2 -443049022#4 -443049022#3 -443049022#2"/>
    </vehicle>
    <vehicle id="39" depart="39.00">
        <route edges="-279961587#2 -279961587#1 -279961587#0 -279948080#1 -279948080#0 -279948078#1 -279948078#0"/>
    </vehicle>
    <vehicle id="40" depart="40.00">
        <route edges="279501535#1 -279533975 279499156#8 -419854108#9 -419854108#8 -419854108#7 279499130#7 279499130#8 279499130#9 279499130#10 279499130#11 279499130#12 279499130#13 279499130#14 279499130#15 279524836#0 279524836#1 279524836#2 279524836#3 279524836#4 279524836#5 279524836#6 279524836#7 279524836#8 279524836#9 279524836#10 279524836#11 279524836#12 279524836#13 387068945#12 387068945#13 387068945#14 387068945#15 387068945#16 279948078#0 279948078#1 279948080#0 279948080#1 279961587#0 279961587#1 279961587#2 -279961587#2 -279961587#1"/>
    </vehicle>
    <vehicle id="41" depart="41.00">
        <route edges="279501573#2 232461096#0 378623307 279501552 279501527#4 279501527#5 279501527#6 279501527#7 -281119294#12 -281119294#11 -281119294#10 -281119294#9 -281119294#8 -281119294#7 -281119294#6 -281119294#5 -281119294#4 -281119294#3 -281119294#2 -281119294#1 -281119294#0 1263703583#2 1263703583#3 387068944#0 387068944#1 387068944#2 387068944#3 387068944#4 387068944#5 1266455129#1 1266440060#0 835132889#0 835132889#1 835132889#2 835132889#3 835132893 835132890 387068945#1 387068945#2 387068945#3 387068945#4 387068945#5 387068945#6 387068945#7 387068945#8 387068945#9 387068945#10 387068945#11 387068945#12 387068945#13 387068945#14 387068945#15 387068945#16 387068945#17 387068945#18 387068945#19 387068945#20 279948095#0 316690049"/>
    </vehicle>
    <vehicle id="42" depart="42.00">
        <route edges="-281130626#0 280204513#0 280204504#1 280204504#2 280204504#3 280204504#4 280204504#5 -280204512#4 -280204512#3 -280204512#2 -280204512#1 -280204512#0 279501602#0 279501602#1 279501602#2 279501602#3 279501602#4 279501602#5 279501602#6 279501602#7 279501602#8 279501602#9 279501602#10 279501602#11 279501602#12 279501602#13 279501602#14 279501602#15 279501602#16 279501602#17 1285069002#0 279518819#0 280181976#0 280181976#1 281120012#2 -281119294#23 -281119294#22 -281119294#21 -281119294#20 -281119294#19 -281119294#18 -281119294#17 -281119294#16 -1048526929 1048526928 -279685709#1"/>
    </vehicle>
    <vehicle id="43" depart="43.00">
        <route edges="835132889#0 279967347#0 1266455130#2 1266440060#2 1266440060#3 1266455129#0 1266455129#1 -279715103#7 -279715103#6 -279715103#5 -279715103#4 -279715103#3 -279715103#2 -279715103#1 -279715103#0 -281109325#3 -281109325#2 -281109325#1 -281109325#0 -419854108#17 -419854108#16 -419854108#15 -419854108#14 -419854108#13 -419854108#12 -419854108#11 279501535#1 279501535#2 279501535#3 279501535#4 279501535#5 279501535#6 280732507#9 -1046397157 -280189705#2 -280189734#1 -280189734#0 279499156#2"/>
    </vehicle>
    <vehicle id="44" depart="44.00">
        <route edges="-279501572#1 -279501572#0 378623684#3 378623684#4 -279501528#3 -279501528#2 -279501528#1 -279501528#0 -279715095#2 -279715095#1 -279715095#0 369456734#0 369456734#1 369456734#2 369456734#3 369456734#4 369456734#5 369456734#6 369456734#7 369456734#8 369456734#9 369456734#10 369456734#11 369456734#12 369456734#13 369456734#14 279715103#0 279499151#0 279499151#1 -279499176#0"/>
    </vehicle>
    <vehicle id="45" depart="45.00">
        <route edges="-279501602#0 279501602#0 279501602#1 279501602#2 279501602#3 279501602#4 279501602#5 279501602#6 279501602#7 279501602#8 279501602#9 279501602#10 279501602#11 279501602#12 279501602#13 279501602#14 279501602#15 279501602#16 279501602#17 1285069002#0 279518819#0 279518819#1 279518819#2 279518819#3 279518819#4 279518819#5 279518819#6"/>
    </vehicle>
    <vehicle id="46" depart="46.00">
        <route edges="279969776#0 -279969750 -279942578#0 -317362404#0 -387068945#10 -387068945#9 -387068945#8 -387068945#7 -387068945#6 -387068945#5 -387068945#4 -387068945#3 -387068945#2 -387068945#1 -387068945#0 835132891 325026086 835132892 1266455130#0 1266455130#1 1266455130#2 1266440060#2 280348417#0 280348417#1 280348417#2 280348417#3 280348417#4 280348417#5 280348417#6 280348417#7 280348417#8 280348417#9 1263703583#5 279684905#0 279684905#1 279684905#2 279530334#0 -369464772#1 369464770 279530333#2 279530333#3 280348421#0 -369464769"/>
    </vehicle>
    <vehicle id="47" depart="47.00">
        <route edges="-279501530#7 -279501530#6 -279501530#5 -279501530#4 -279501530#3 -279501530#2 -279501530#1 -279501530#0 -281109325#7"/>
    </vehicle>
    <vehicle id="48" depart="48.00">
        <route edges="568544910 568544908#0 -568544891#0 475416171#3 475416171#4 475416171#5 475416171#6 475416171#7 475416171#8 475416171#9 475416171#10 475416171#11 475416171#12 475416171#13 475416171#14 475416171#15 475416171#16 475416171#17 475416171#18 475416171#19 475416171#20 419854108#0 419854108#1 419854108#2 419854108#3 419854108#4 419854108#5 419854108#6 419854108#7 419854108#8 419854108#9 419854108#10 419854108#11 419854108#12 419854108#13 419854108#14 419854108#15 419854108#16 419854108#17 281109325#0 281109325#1 279499176#0 279499176#1 279499176#2 279499176#3 279499176#4 279499176#5 279499176#6"/>
    </vehicle>
    <vehicle id="49" depart="49.00">
        <route edges="443053322#3 443053322#4 1263703583#6 1263703583#0 1263703583#1 1263703583#2 -281109325#14 -281109325#13 -281109325#12 -281109325#11 -281109325#10 -281109325#9 -281109325#8 -281109325#7 -281109325#6 -281109325#5 -281109325#4 -281109325#3 -281109325#2 -281109325#1 -281109325#0 -419854108#17 -419854108#16 -419854108#15 -419854108#14 -419854108#13 -419854108#12 -419854108#11 -419854108#10 -419854108#9 -419854108#8 -419854108#7 -419854108#6 -419854108#5 -419854108#4 -419854108#3 -419854108#2 -419854108#1 280345396#0 280345396#1 280345396#2 280345396#3 280345396#4 280345396#5 280345396#6 280345396#7 280345396#8"/>
    </vehicle>
    <vehicle id="50" depart="50.00">
        <route edges="-1165579804#1 -1165579804#0 -1165579801#0 280345396#16 280345396#17 -279501602#0 475416171#7 475416171#8 475416171#9 475416171#10 475416171#11 475416171#12 475416171#13 475416171#14 475416171#15 475416171#16 475416171#17 475416171#18 475416171#19 475416171#20 419854108#0 419854108#1 419854108#2 419854108#3 419854108#4 419854108#5 419854108#6 419854108#7 419854108#8 419854108#9 419854108#10 419854108#11 419854108#12 419854108#13 419854108#14 419854108#15 419854108#16 419854108#17 281109325#0 281109325#1 281109325#2 281109325#3 279715103#0 279715103#1 279715103#2 279715103#3 279715103#4 279715103#5 279715103#6 279715103#7 1266440060#0 1266440060#1 1266440060#2 -443049022#4 -443049022#3 -443049022#2 -443049022#1 -443049022#0 279967368 419635881#1 419635881#2 443049011#0 443049011#1 443049011#2 443049011#3 279940111#0"/>
    </vehicle>
    <vehicle id="51" depart="51.00">
        <route edges="279530368#2 279530368#3 279948115#2 279948115#3 279948115#4 279948115#5 279948115#6 -279524836#0 -279499130#15 -279499130#14 -279499130#13 -279499130#12 -279499130#11 -279499130#10 -279499130#9 -279499130#8 -279499130#7 -419854108#6 -419854108#5 -419854108#4 -419854108#3 -419854108#2 -419854108#1 280345396#0 280345396#1 280345396#2 280345396#3 280345396#4 280345396#5 280345396#6 280345396#7 280345396#8 280345396#9 280345396#10 280345396#11 280345396#12 280345396#13 280345396#14 280345396#15 280345396#16 -279501576#7 -279501576#6 -279501576#5 -279501576#4 -279501576#3 279501526#7"/>
    </vehicle>
    <vehicle id="52" depart="52.00">
        <route edges="-279961598#2 -279961598#1 -279961598#0 279948115#0 279948115#1 279948115#2 279948115#3 279948115#4 279948115#5 279948115#6 -279524836#0 -279499130#15 -279499130#14 -279499130#13 -279499130#12 -279499130#11 279524852#0 279524852#1"/>
    </vehicle>
    <vehicle id="53" depart="53.00">
        <route edges="-279501602#14 -279501602#13 -279501602#12 -279501602#11 -279501602#10 -279501602#9 -279501602#8 -279501602#7 -279501602#6 -279501602#5 -279501602#4 -279501602#3 -279501602#2 -279501602#1 -279501602#0 475416171#7 475416171#8 475416171#9 475416171#10 475416171#11 475416171#12 475416171#13 475416171#14 475416171#15 475416171#16 475416171#17 475416171#18 475416171#19 475416171#20 419854108#0 419854108#1 419854108#2 419854108#3 419854108#4 419854108#5 419854108#6 279499130#7 279499130#8 279499130#9 279499130#10 279499130#11 279499130#12 279499130#13 279499130#14 279499130#15 -279969747#7 -279969747#6 -279969747#5 -279969747#4 -279969747#3 -279969747#2 -279969747#1 -279969747#0 279524835#8 279524849#0 279524849#1 279948088#7 279948088#8 279948088#9 -387068945#19 -387068945#18 -387068945#17"/>
    </vehicle>
    <vehicle id="54" depart="54.00">
        <route edges="-419236415 -280204512#1 -280204512#0 475416171#7 475416171#8 475416171#9 475416171#10 475416171#11 475416171#12 475416171#13 475416171#14 475416171#15 475416171#16 475416171#17 475416171#18 475416171#19 475416171#20 419854108#0 419854108#1 419854108#2 419854108#3 419854108#4 419854108#5 419854108#6 279499130#7 279499130#8 279499130#9 279499130#10 279499130#11 279499130#12 279499130#13 279499130#14 279499130#15 279524836#0 279524836#1 279524836#2 279524836#3 279524836#4 279524836#5 279524836#6 279524836#7 419854107#0 419854107#1 419854107#2"/>
    </vehicle>
    <vehicle id="55" depart="55.00">
        <route edges="280729010#1 -280729010#1 -280729010#0 475416171#10 475416171#11 475416171#12 475416171#13 475416171#14 475416171#15 475416171#16 475416171#17 475416171#18 475416171#19 475416171#20 419854108#0 419854108#1 419854108#2 419854108#3 419854108#4 419854108#5 419854108#6 279499130#7 279499130#8 279499130#9 279499130#10 279499130#11 279499130#12 279499130#13 279499130#14 279499130#15 279524836#0 -279948115#6 -279948115#5 -279948115#4 -279530375#5 -279530375#4 -279530375#3 -279530375#2 -279530375#1 -279961591"/>
    </vehicle>
    <vehicle id="56" depart="56.00">
        <route edges="1266440060#2 280348417#0 280348417#1 280348417#2 280348417#3 280348417#4 -279501558#3 -279501558#2 -279501558#1 -279501558#0 279501530#0 279501530#1 279501530#2 -279530357"/>
    </vehicle>
    <vehicle id="57" depart="57.00">
        <route edges="348372031#4 -378623682#1 -378623682#0 -369456734#9 -369456734#8 -369456734#7 -369456734#6 -369456734#5 -369456734#4 -369456734#3 -279499132 280189746#4 280189746#5 280189746#6 280722315"/>
    </vehicle>
    <vehicle id="58" depart="58.00">
        <route edges="-279969778#2 -279969778#1 -316690054#1 -316690054#0 -279524835#11 -279524835#10 -279524835#9 -279524835#8 -279524835#7 -279524835#6 279524845#1"/>
    </vehicle>
    <vehicle id="59" depart="59.00">